Version 4
SHEET 1 880 680
WIRE 112 -32 -48 -32
WIRE -48 0 -48 -32
WIRE 112 0 112 -32
WIRE 112 0 64 0
WIRE 176 0 112 0
WIRE -48 112 -48 80
WIRE 176 112 176 80
WIRE 192 112 176 112
WIRE 304 112 256 112
WIRE 176 128 176 112
WIRE -32 176 -80 176
WIRE 64 176 64 80
WIRE 64 176 32 176
WIRE 112 176 64 176
WIRE 64 272 64 176
WIRE 176 272 176 224
WIRE -80 288 -80 256
WIRE 112 352 64 352
WIRE 176 352 112 352
WIRE 112 400 112 352
FLAG 112 400 0
FLAG -48 112 0
FLAG 304 192 0
FLAG -80 288 0
FLAG 304 112 V_out
FLAG -80 176 V_in
SYMBOL npn 112 128 R0
SYMATTR InstName Q1
SYMATTR Value 2N3904
SYMBOL res 160 256 R0
SYMATTR InstName R1
SYMATTR Value 20
SYMBOL res 48 256 R0
SYMATTR InstName R2
SYMATTR Value 900
SYMBOL res 48 -16 R0
SYMATTR InstName R3
SYMATTR Value 8000
SYMBOL res 160 -16 R0
SYMATTR InstName R4
SYMATTR Value 900
SYMBOL voltage -48 -16 R0
WINDOW 123 0 0 Left 2
WINDOW 39 0 0 Left 2
SYMATTR InstName V1
SYMATTR Value 9
SYMBOL res 288 96 R0
SYMATTR InstName R5
SYMATTR Value 1.2k
SYMBOL voltage -80 160 R0
WINDOW 123 0 0 Left 2
WINDOW 39 24 124 Left 2
SYMATTR InstName V2
SYMATTR Value SINE(0 100u 1k)
SYMATTR SpiceLine Rser=1000
SYMBOL cap 32 160 R90
WINDOW 0 0 32 VBottom 2
WINDOW 3 32 32 VTop 2
SYMATTR InstName C1
SYMATTR Value 1µ
SYMBOL cap 256 96 R90
WINDOW 0 0 32 VBottom 2
WINDOW 3 32 32 VTop 2
SYMATTR InstName C2
SYMATTR Value 1µ
TEXT -114 424 Left 2 !.tran 10m
